*
.model 1N5819 D(IS=31.7u Rs=0.051 N=1.373 Cjo=110p M=0.35 Eg=0.69 Xti=2)   


