*
.model 1N914 D(IS=2.52n Rs=0.568 N=1.752 Cjo=4p M=0.4 TT=20n)   


